
#######################################################################
#
#                 Cambridge Crystallographic Data Centre
#                                CCDC 
#
#######################################################################
#
# If this CIF has been generated from an entry in the Cambridge 
# Structural Database, then it will include bibliographic, chemical, 
# crystal, experimental, refinement or atomic coordinate data resulting 
# from the CCDC's data processing and validation procedures.
#
#######################################################################

data_ABEBUF
_symmetry_cell_setting           orthorhombic
_symmetry_space_group_name_H-M   'P b c a'
_symmetry_Int_Tables_number      61
_space_group_name_Hall           '-P 2ac 2ab'
loop_
_symmetry_equiv_pos_site_id
_symmetry_equiv_pos_as_xyz
1 x,y,z
2 1/2+x,y,1/2-z
3 x,1/2-y,1/2+z
4 1/2-x,1/2+y,z
5 -x,-y,-z
6 1/2-x,-y,1/2+z
7 -x,1/2+y,1/2-z
8 1/2+x,1/2-y,-z
_cell_length_a                   10.72170(10)
_cell_length_b                   10.89980(10)
_cell_length_c                   27.6353(2)
_cell_angle_alpha                90
_cell_angle_beta                 90
_cell_angle_gamma                90
_cell_volume                     3229.58
loop_
_atom_site_label
_atom_site_type_symbol
_atom_site_fract_x
_atom_site_fract_y
_atom_site_fract_z
_atom_site_U_iso_or_equiv
_atom_site_thermal_displace_type
O1 O 0.17989(8) 0.47410(8) 0.06227(3) 0.0242 Uani
O2 O 0.21788(8) 0.09155(8) 0.17544(3) 0.0244 Uani
N1 N 0.12146(9) 0.41573(9) 0.13702(3) 0.0210 Uani
N2 N 0.13774(9) 0.14494(9) 0.10297(3) 0.0210 Uani
C1 C 0.11519(10) 0.40760(10) 0.08851(4) 0.0196 Uani
C2 C 0.02604(10) 0.31795(11) 0.06649(4) 0.0207 Uani
C3 C -0.06766(12) 0.36158(12) 0.03595(4) 0.0276 Uani
C4 C -0.14665(13) 0.28019(13) 0.01278(5) 0.0340 Uani
C5 C -0.13158(13) 0.15469(13) 0.01906(5) 0.0341 Uani
C6 C -0.03838(13) 0.11047(12) 0.04916(4) 0.0279 Uani
C7 C 0.03936(11) 0.19165(11) 0.07342(4) 0.0209 Uani
C8 C 0.14004(10) 0.14927(10) 0.15179(4) 0.0192 Uani
C9 C 0.04712(10) 0.22829(10) 0.17763(4) 0.0197 Uani
C10 C -0.02769(12) 0.17415(11) 0.21297(4) 0.0257 Uani
C11 C -0.10449(13) 0.24528(13) 0.24190(5) 0.0312 Uani
C12 C -0.10559(13) 0.37212(12) 0.23627(5) 0.0303 Uani
C13 C -0.03294(12) 0.42691(11) 0.20084(4) 0.0250 Uani
C14 C 0.04251(10) 0.35510(10) 0.17107(4) 0.0195 Uani
H1 H 0.1730(15) 0.4747(15) 0.1494(6) 0.0340 Uiso
H2 H 0.1899(14) 0.0910(15) 0.0890(5) 0.0320 Uiso
H3 H -0.0766(14) 0.4510(15) 0.0314(5) 0.0320 Uiso
H4 H -0.2120(16) 0.3122(15) -0.0079(6) 0.0430 Uiso
H5 H -0.1846(16) 0.0990(16) 0.0023(6) 0.0460 Uiso
H6 H -0.0275(14) 0.0230(15) 0.0549(5) 0.0330 Uiso
H7 H -0.0242(13) 0.0860(14) 0.2165(5) 0.0290 Uiso
H8 H -0.1565(15) 0.2073(14) 0.2657(6) 0.0370 Uiso
H9 H -0.1589(15) 0.4218(14) 0.2568(6) 0.0370 Uiso
H10 H -0.0322(13) 0.5158(14) 0.1959(5) 0.0280 Uiso
N3 N -0.02808(13) -0.08885(12) 0.14764(5) 0.0450 Uani
C15 C -0.14832(16) -0.11526(16) 0.15009(7) 0.0485 Uani
C16 C -0.19998(16) -0.22201(19) 0.13276(8) 0.0553 Uani
C17 C -0.12374(17) -0.30690(17) 0.11128(7) 0.0508 Uani
C18 C 0.00189(16) -0.28024(15) 0.10774(7) 0.0456 Uani
C19 C 0.04385(15) -0.17192(15) 0.12682(7) 0.0450 Uani
H11 H -0.201(2) -0.051(2) 0.1665(8) 0.0750 Uiso
H12 H -0.291(2) -0.235(2) 0.1367(8) 0.0840 Uiso
H13 H -0.1561(19) -0.382(2) 0.0971(8) 0.0690 Uiso
H14 H 0.0571(19) -0.336(2) 0.0912(7) 0.0660 Uiso
H15 H 0.132(2) -0.152(2) 0.1243(7) 0.0680 Uiso
loop_
_atom_site_aniso_label
_atom_site_aniso_U_11
_atom_site_aniso_U_22
_atom_site_aniso_U_33
_atom_site_aniso_U_23
_atom_site_aniso_U_13
_atom_site_aniso_U_12
O1 0.0272(4) 0.0231(4) 0.0223(4) 0.0008(3) 0.0042(3) -0.0029(3)
O2 0.0266(4) 0.0241(4) 0.0225(4) -0.0008(3) -0.0034(3) 0.0054(3)
N1 0.0231(5) 0.0199(5) 0.0201(5) -0.0020(4) 0.0012(4) -0.0047(4)
N2 0.0225(5) 0.0206(5) 0.0198(5) -0.0023(4) -0.0006(4) 0.0040(4)
C1 0.0197(5) 0.0176(5) 0.0214(5) 0.0004(4) 0.0013(4) 0.0034(4)
C2 0.0214(5) 0.0231(6) 0.0175(5) 0.0000(4) 0.0009(4) 0.0004(4)
C3 0.0300(6) 0.0275(6) 0.0252(6) 0.0039(5) -0.0040(5) 0.0024(5)
C4 0.0322(7) 0.0419(8) 0.0278(6) 0.0040(5) -0.0123(5) 0.0004(6)
C5 0.0360(7) 0.0385(7) 0.0279(6) -0.0053(6) -0.0111(5) -0.0080(6)
C6 0.0346(7) 0.0248(6) 0.0244(6) -0.0031(5) -0.0046(5) -0.0016(5)
C7 0.0222(5) 0.0234(6) 0.0172(5) -0.0012(4) -0.0004(4) 0.0011(4)
C8 0.0206(5) 0.0170(5) 0.0200(5) -0.0005(4) -0.0011(4) -0.0019(4)
C9 0.0202(5) 0.0212(5) 0.0178(5) -0.0012(4) -0.0020(4) 0.0003(4)
C10 0.0318(6) 0.0214(6) 0.0238(6) 0.0021(4) 0.0025(5) -0.0019(5)
C11 0.0349(7) 0.0334(7) 0.0253(6) 0.0018(5) 0.0110(5) -0.0031(6)
C12 0.0323(7) 0.0315(7) 0.0271(6) -0.0058(5) 0.0094(5) 0.0027(5)
C13 0.0298(6) 0.0209(6) 0.0243(6) -0.0038(5) 0.0016(5) 0.0004(5)
C14 0.0200(5) 0.0212(5) 0.0172(5) -0.0005(4) -0.0007(4) -0.0023(4)
N3 0.0407(7) 0.0394(7) 0.0549(8) -0.0031(6) 0.0070(6) -0.0065(6)
C15 0.0393(8) 0.0488(9) 0.0575(10) -0.0098(8) 0.0134(7) 0.0010(7)
C16 0.0269(8) 0.0672(12) 0.0718(12) -0.0129(9) 0.0028(8) -0.0058(8)
C17 0.0494(10) 0.0459(9) 0.0572(10) -0.0125(8) -0.0040(8) -0.0072(8)
C18 0.0449(9) 0.0361(8) 0.0559(10) 0.0030(7) 0.0124(8) 0.0117(7)
C19 0.0288(7) 0.0383(8) 0.0680(11) 0.0091(7) 0.0053(7) -0.0016(6)
loop_
_geom_bond_atom_site_label_1
_geom_bond_atom_site_label_2
_geom_bond_site_symmetry_1
_geom_bond_site_symmetry_2
O1 C1 1_555 1_555
O2 C8 1_555 1_555
N1 C1 1_555 1_555
N2 C7 1_555 1_555
C1 C2 1_555 1_555
C2 C3 1_555 1_555
C3 C4 1_555 1_555
C4 C5 1_555 1_555
C5 C6 1_555 1_555
C6 C7 1_555 1_555
C7 C2 1_555 1_555
C8 N2 1_555 1_555
C9 C8 1_555 1_555
C10 C9 1_555 1_555
C11 C10 1_555 1_555
C12 C11 1_555 1_555
C13 C12 1_555 1_555
C14 N1 1_555 1_555
H1 N1 1_555 1_555
H2 N2 1_555 1_555
H3 C3 1_555 1_555
H4 C4 1_555 1_555
H5 C5 1_555 1_555
H6 C6 1_555 1_555
H7 C10 1_555 1_555
H8 C11 1_555 1_555
H9 C12 1_555 1_555
H10 C13 1_555 1_555
N3 C15 1_555 1_555
C15 C16 1_555 1_555
C16 C17 1_555 1_555
C17 C18 1_555 1_555
C18 C19 1_555 1_555
C19 N3 1_555 1_555
H11 C15 1_555 1_555
H12 C16 1_555 1_555
H13 C17 1_555 1_555
H14 C18 1_555 1_555
H15 C19 1_555 1_555
C9 C14 1_555 1_555
C13 C14 1_555 1_555

#END
